
**** 11/26/24 12:20:31 ******* PSpice Lite (March 2016) ******* ID# 10813 ****

 ** Profile: "SCHEMATIC1-Half_Wave"  [ D:\upayanmazumder\DevJourney\Capture Cis Lite\Single Phase Rectifier\Half Wave Rectifier-PSpic


 ****     CIRCUIT DESCRIPTION


******************************************************************************




** Creating circuit file "Half_Wave.cir" 
** WARNING: THIS AUTOMATICALLY GENERATED FILE MAY BE OVERWRITTEN BY SUBSEQUENT SIMULATIONS

*Libraries: 
* Profile Libraries :
* Local Libraries :
* From [PSPICE NETLIST] section of C:\SPB_Data\cdssetup\OrCAD_PSpice\17.2.0\PSpice.ini file:
.lib "nomd.lib" 

*Analysis directives: 
.TRAN  0 0.04s 0 
.OPTIONS ADVCONV
.PROBE64 V(alias(*)) I(alias(*)) W(alias(*)) D(alias(*)) NOISE(alias(*)) 
.INC "..\SCHEMATIC1.net" 



**** INCLUDING SCHEMATIC1.net ****
* source HALF WAVE RECTIFIER
D_D1         N00110 N00117 D1N4002 
V_V1         N00110 0  
+SIN 0 10 50 0 0 0
R_R1         0 N00117  10 TC=0,0 

**** RESUMING Half_Wave.cir ****
.END

**** 11/26/24 12:20:31 ******* PSpice Lite (March 2016) ******* ID# 10813 ****

 ** Profile: "SCHEMATIC1-Half_Wave"  [ D:\upayanmazumder\DevJourney\Capture Cis Lite\Single Phase Rectifier\Half Wave Rectifier-PSpic


 ****     Diode MODEL PARAMETERS


******************************************************************************




               D1N4002         
          IS   14.110000E-09 
           N    1.984        
         ISR  100.000000E-12 
         IKF   94.81         
          BV  100.1          
         IBV   10            
          RS     .03389      
          TT    4.761000E-06 
         CJO   51.170000E-12 
          VJ     .3905       
           M     .2762       


**** 11/26/24 12:20:31 ******* PSpice Lite (March 2016) ******* ID# 10813 ****

 ** Profile: "SCHEMATIC1-Half_Wave"  [ D:\upayanmazumder\DevJourney\Capture Cis Lite\Single Phase Rectifier\Half Wave Rectifier-PSpic


 ****     INITIAL TRANSIENT SOLUTION       TEMPERATURE =   27.000 DEG C


******************************************************************************



 NODE   VOLTAGE     NODE   VOLTAGE     NODE   VOLTAGE     NODE   VOLTAGE


(N00110)    0.0000 (N00117)-5.770E-24 




    VOLTAGE SOURCE CURRENTS
    NAME         CURRENT

    V_V1         5.770E-25

    TOTAL POWER DISSIPATION   0.00E+00  WATTS



          JOB CONCLUDED

**** 11/26/24 12:20:31 ******* PSpice Lite (March 2016) ******* ID# 10813 ****

 ** Profile: "SCHEMATIC1-Half_Wave"  [ D:\upayanmazumder\DevJourney\Capture Cis Lite\Single Phase Rectifier\Half Wave Rectifier-PSpic


 ****     JOB STATISTICS SUMMARY


******************************************************************************



  Total job time (using Solver 1)   =         .02
