
**** 11/26/24 12:58:00 ******* PSpice Lite (March 2016) ******* ID# 10813 ****

 ** Profile: "SCHEMATIC1-Max_power"  [ D:\upayanmazumder\DevJourney\Capture Cis Lite\Maximum Power Transfer Theorem\Maximum Power Tra


 ****     CIRCUIT DESCRIPTION


******************************************************************************




** Creating circuit file "Max_power.cir" 
** WARNING: THIS AUTOMATICALLY GENERATED FILE MAY BE OVERWRITTEN BY SUBSEQUENT SIMULATIONS

*Libraries: 
* Profile Libraries :
* Local Libraries :
* From [PSPICE NETLIST] section of C:\SPB_Data\cdssetup\OrCAD_PSpice\17.2.0\PSpice.ini file:
.lib "nomd.lib" 

*Analysis directives: 
.DC LIN PARAM RL 1 20 0.2 
.OPTIONS ADVCONV
.PROBE64 V(alias(*)) I(alias(*)) W(alias(*)) D(alias(*)) NOISE(alias(*)) 
.INC "..\SCHEMATIC1.net" 



**** INCLUDING SCHEMATIC1.net ****
* source MAXIMUM POWER TRANSFER
R_R1         N00115 N00143  4 TC=0,0 
R_R2         N00147 N00115  12 TC=0,0 
R_R3         N00119 N00143  6 TC=0,0 
R_R4         N00147 N00119  8 TC=0,0 
V_V1         N00115 N00119 30Vdc
R_R5         N00147 N00143  {RL} TC=0,0 
.PARAM  rl=1

**** RESUMING Max_power.cir ****
.END

ERROR(ORPSIM-15142): Node N00115 is floating

ERROR(ORPSIM-15142): Node N00143 is floating

ERROR(ORPSIM-15142): Node N00147 is floating

ERROR(ORPSIM-15142): Node N00119 is floating
