
**** 11/26/24 16:25:11 ******* PSpice Lite (March 2016) ******* ID# 10813 ****

 ** Profile: "SCHEMATIC1-RLC"  [ D:\upayanmazumder\DevJourney\Capture Cis Lite\Steady State Response of RLC Circuit\Steady State Resp


 ****     CIRCUIT DESCRIPTION


******************************************************************************




** Creating circuit file "RLC.cir" 
** WARNING: THIS AUTOMATICALLY GENERATED FILE MAY BE OVERWRITTEN BY SUBSEQUENT SIMULATIONS

*Libraries: 
* Profile Libraries :
* Local Libraries :
* From [PSPICE NETLIST] section of C:\SPB_Data\cdssetup\OrCAD_PSpice\17.2.0\PSpice.ini file:
.lib "nomd.lib" 

*Analysis directives: 
.AC DEC 100 0.1 100000
.OPTIONS ADVCONV
.PROBE64 V(alias(*)) I(alias(*)) W(alias(*)) D(alias(*)) NOISE(alias(*)) 
.INC "..\SCHEMATIC1.net" 



**** INCLUDING SCHEMATIC1.net ****
* source STEADY STATE RESPONSE OF RLC CIRCUIT
R_R1         N00131 N00092  100 TC=0,0 
L_L1         N00092 N00096  47mH  
C_C1         N00096 0  47uH  TC=0,0 
V_V1         N00131 0 DC 0Vdc AC 20V 

**** RESUMING RLC.cir ****
.END

**** 11/26/24 16:25:11 ******* PSpice Lite (March 2016) ******* ID# 10813 ****

 ** Profile: "SCHEMATIC1-RLC"  [ D:\upayanmazumder\DevJourney\Capture Cis Lite\Steady State Response of RLC Circuit\Steady State Resp


 ****     SMALL SIGNAL BIAS SOLUTION       TEMPERATURE =   27.000 DEG C


******************************************************************************



 NODE   VOLTAGE     NODE   VOLTAGE     NODE   VOLTAGE     NODE   VOLTAGE


(N00092)    0.0000 (N00096)    0.0000 (N00131)    0.0000 




    VOLTAGE SOURCE CURRENTS
    NAME         CURRENT

    V_V1         0.000E+00

    TOTAL POWER DISSIPATION   0.00E+00  WATTS



          JOB CONCLUDED

**** 11/26/24 16:25:11 ******* PSpice Lite (March 2016) ******* ID# 10813 ****

 ** Profile: "SCHEMATIC1-RLC"  [ D:\upayanmazumder\DevJourney\Capture Cis Lite\Steady State Response of RLC Circuit\Steady State Resp


 ****     JOB STATISTICS SUMMARY


******************************************************************************



  Total job time (using Solver 1)   =        0.00
